Version 4
SHEET 1 880 680
WIRE 192 80 128 80
WIRE 320 80 272 80
WIRE 128 160 128 80
WIRE 192 160 128 160
WIRE 320 160 320 80
WIRE 320 160 304 160
WIRE 384 160 320 160
WIRE 400 160 384 160
WIRE 128 192 128 160
WIRE 128 208 128 192
WIRE 320 256 128 256
WIRE 320 272 320 256
FLAG 320 272 0
FLAG 384 160 output
SYMBOL 74HCT\\74hct14 240 112 R0
SYMATTR InstName U1
SYMBOL res 288 64 R90
WINDOW 0 0 56 VBottom 1
WINDOW 3 32 56 VTop 1
SYMATTR InstName R1
SYMATTR Value 2.2K
SYMBOL cap 112 192 R0
WINDOW 0 24 8 Left 1
WINDOW 3 24 56 Left 1
SYMATTR InstName C1
SYMATTR Value 10nF
TEXT 160 304 Left 2 !.lib 74HCT.lib
TEXT 112 328 Left 2 !.tran 0 0.01 0 100u
