Version 4
SHEET 1 880 680
WIRE -64 208 -64 128
WIRE 272 208 272 128
WIRE 272 208 -64 208
SYMBOL 74HCT\\74hct04 -16 64 R0
SYMATTR InstName U1
SYMBOL 74HCT\\74hct04 96 64 R0
SYMATTR InstName U2
SYMBOL 74HCT\\74hct04 208 64 R0
SYMATTR InstName U3
TEXT 0 248 Left 2 !.lib 74HCT.lib
TEXT -70 268 Left 2 !.tran 0 0.001 0 100u
